LIB001_s_ibuprofen
     RDKit          2D

 15 15  0  0  0  0  0  0  0  0999 V2000
   -3.6102    1.6872    0.0000 C   0  0  0  0  0  0  0  0  0  0  0  0
   -2.7820    0.4366    0.0000 C   0  0  0  0  0  0  0  0  0  0  0  0
   -1.2848    0.5285    0.0000 C   0  0  0  0  0  0  0  0  0  0  0  0
   -0.6158    1.8710    0.0000 C   0  0  0  0  0  0  0  0  0  0  0  0
    0.8814    1.9629    0.0000 C   0  0  0  0  0  0  0  0  0  0  0  0
    1.7096    0.7123    0.0000 C   0  0  0  0  0  0  0  0  0  0  0  0
    1.0406   -0.6302    0.0000 C   0  0  0  0  0  0  0  0  0  0  0  0
   -0.4566   -0.7222    0.0000 C   0  0  0  0  0  0  0  0  0  0  0  0
    3.2067    0.8042    0.0000 C   0  0  0  0  0  0  0  0  0  0  0  0
    4.0349   -0.4464    0.0000 C   0  0  0  0  0  0  0  0  0  0  0  0
    5.5321   -0.3545    0.0000 C   0  0  0  0  0  0  0  0  0  0  0  0
    3.3659   -1.7890    0.0000 C   0  0  0  0  0  0  0  0  0  0  0  0
   -3.4510   -0.9060    0.0000 C   0  0  0  0  0  0  0  0  0  0  0  0
   -2.6228   -2.1566    0.0000 O   0  0  0  0  0  0  0  0  0  0  0  0
   -4.9482   -0.9979    0.0000 O   0  0  0  0  0  0  0  0  0  0  0  0
  2  1  1  1
  2  3  1  0
  3  4  1  0
  4  5  2  0
  5  6  1  0
  6  7  2  0
  7  8  1  0
  6  9  1  0
  9 10  1  0
 10 11  1  0
 10 12  1  0
  2 13  1  0
 13 14  2  0
 13 15  1  0
  8  3  2  0
M  END
>  <compound_id>  (1) 
LIB001_s_ibuprofen

>  <display_name>  (1) 
S-ibuprofen

>  <pubchem_cid>  (1) 
3672

>  <supplier>  (1) 
NorthPier

$$$$
LIB002_s_ibuprofen_sodium
     RDKit          2D

 16 15  0  0  0  0  0  0  0  0999 V2000
    0.0000    2.9629    0.0000 Na  0  0  0  0  0 15  0  0  0  0  0  0
   -3.6102    1.6872    0.0000 C   0  0  0  0  0  0  0  0  0  0  0  0
   -2.7820    0.4366    0.0000 C   0  0  0  0  0  0  0  0  0  0  0  0
   -1.2848    0.5285    0.0000 C   0  0  0  0  0  0  0  0  0  0  0  0
   -0.6158    1.8710    0.0000 C   0  0  0  0  0  0  0  0  0  0  0  0
    0.8814    1.9629    0.0000 C   0  0  0  0  0  0  0  0  0  0  0  0
    1.7096    0.7123    0.0000 C   0  0  0  0  0  0  0  0  0  0  0  0
    1.0406   -0.6302    0.0000 C   0  0  0  0  0  0  0  0  0  0  0  0
   -0.4566   -0.7222    0.0000 C   0  0  0  0  0  0  0  0  0  0  0  0
    3.2067    0.8042    0.0000 C   0  0  0  0  0  0  0  0  0  0  0  0
    4.0349   -0.4464    0.0000 C   0  0  0  0  0  0  0  0  0  0  0  0
    5.5321   -0.3545    0.0000 C   0  0  0  0  0  0  0  0  0  0  0  0
    3.3659   -1.7890    0.0000 C   0  0  0  0  0  0  0  0  0  0  0  0
   -3.4510   -0.9060    0.0000 C   0  0  0  0  0  0  0  0  0  0  0  0
   -2.6228   -2.1566    0.0000 O   0  0  0  0  0  0  0  0  0  0  0  0
   -4.9482   -0.9979    0.0000 O   0  0  0  0  0  0  0  0  0  0  0  0
  3  2  1  1
  3  4  1  0
  4  5  1  0
  5  6  2  0
  6  7  1  0
  7  8  2  0
  8  9  1  0
  7 10  1  0
 10 11  1  0
 11 12  1  0
 11 13  1  0
  3 14  1  0
 14 15  2  0
 14 16  1  0
  9  4  2  0
M  CHG  2   1   1  16  -1
M  END
>  <compound_id>  (2) 
LIB002_s_ibuprofen_sodium

>  <display_name>  (2) 
S-ibuprofen sodium

>  <pubchem_cid>  (2) 
23690315

>  <supplier>  (2) 
NorthPier

$$$$
LIB004_naproxen
     RDKit          2D

 17 18  0  0  0  0  0  0  0  0999 V2000
    3.6033   -1.9815    0.0000 C   0  0  0  0  0  0  0  0  0  0  0  0
    3.1830   -0.5416    0.0000 C   0  0  0  0  0  0  0  0  0  0  0  0
    1.7258   -0.1856    0.0000 C   0  0  0  0  0  0  0  0  0  0  0  0
    0.6890   -1.2696    0.0000 C   0  0  0  0  0  0  0  0  0  0  0  0
   -0.7682   -0.9136    0.0000 C   0  0  0  0  0  0  0  0  0  0  0  0
   -1.1885    0.5263    0.0000 C   0  0  0  0  0  0  0  0  0  0  0  0
   -0.1516    1.6103    0.0000 C   0  0  0  0  0  0  0  0  0  0  0  0
    1.3056    1.2543    0.0000 C   0  0  0  0  0  0  0  0  0  0  0  0
   -2.6456    0.8823    0.0000 C   0  0  0  0  0  0  0  0  0  0  0  0
   -3.6825   -0.2016    0.0000 C   0  0  0  0  0  0  0  0  0  0  0  0
   -3.2622   -1.6415    0.0000 C   0  0  0  0  0  0  0  0  0  0  0  0
   -1.8050   -1.9975    0.0000 C   0  0  0  0  0  0  0  0  0  0  0  0
   -5.1396    0.1544    0.0000 O   0  0  0  0  0  0  0  0  0  0  0  0
   -5.5599    1.5943    0.0000 C   0  0  0  0  0  0  0  0  0  0  0  0
    4.2198    0.5423    0.0000 C   0  0  0  0  0  0  0  0  0  0  0  0
    3.7996    1.9822    0.0000 O   0  0  0  0  0  0  0  0  0  0  0  0
    5.6770    0.1863    0.0000 O   0  0  0  0  0  0  0  0  0  0  0  0
  2  1  1  1
  2  3  1  0
  3  4  1  0
  4  5  2  0
  5  6  1  0
  6  7  2  0
  7  8  1  0
  6  9  1  0
  9 10  2  0
 10 11  1  0
 11 12  2  0
 10 13  1  0
 13 14  1  0
  2 15  1  0
 15 16  2  0
 15 17  1  0
  8  3  2  0
 12  5  1  0
M  END
>  <compound_id>  (3) 
LIB004_naproxen

>  <display_name>  (3) 
Naproxen

>  <pubchem_cid>  (3) 
156391

>  <supplier>  (3) 
AsterChem

$$$$
LIB005_ketoprofen
     RDKit          2D

 19 20  0  0  0  0  0  0  0  0999 V2000
    3.7494   -2.1382    0.0000 C   0  0  0  0  0  0  0  0  0  0  0  0
    3.6226   -0.6435    0.0000 C   0  0  0  0  0  0  0  0  0  0  0  0
    2.2648   -0.0060    0.0000 C   0  0  0  0  0  0  0  0  0  0  0  0
    1.0338   -0.8631    0.0000 C   0  0  0  0  0  0  0  0  0  0  0  0
   -0.3240   -0.2256    0.0000 C   0  0  0  0  0  0  0  0  0  0  0  0
   -0.4507    1.2691    0.0000 C   0  0  0  0  0  0  0  0  0  0  0  0
    0.7803    2.1262    0.0000 C   0  0  0  0  0  0  0  0  0  0  0  0
    2.1381    1.4886    0.0000 C   0  0  0  0  0  0  0  0  0  0  0  0
   -1.5550   -1.0826    0.0000 C   0  0  0  0  0  0  0  0  0  0  0  0
   -1.4282   -2.5773    0.0000 O   0  0  0  0  0  0  0  0  0  0  0  0
   -2.9127   -0.4451    0.0000 C   0  0  0  0  0  0  0  0  0  0  0  0
   -3.0395    1.0495    0.0000 C   0  0  0  0  0  0  0  0  0  0  0  0
   -4.3973    1.6871    0.0000 C   0  0  0  0  0  0  0  0  0  0  0  0
   -5.6283    0.8300    0.0000 C   0  0  0  0  0  0  0  0  0  0  0  0
   -5.5015   -0.6647    0.0000 C   0  0  0  0  0  0  0  0  0  0  0  0
   -4.1437   -1.3022    0.0000 C   0  0  0  0  0  0  0  0  0  0  0  0
    4.8536    0.2136    0.0000 C   0  0  0  0  0  0  0  0  0  0  0  0
    4.7269    1.7082    0.0000 O   0  0  0  0  0  0  0  0  0  0  0  0
    6.2114   -0.4240    0.0000 O   0  0  0  0  0  0  0  0  0  0  0  0
  1  2  1  0
  2  3  1  0
  3  4  1  0
  4  5  2  0
  5  6  1  0
  6  7  2  0
  7  8  1  0
  5  9  1  0
  9 10  2  0
  9 11  1  0
 11 12  2  0
 12 13  1  0
 13 14  2  0
 14 15  1  0
 15 16  2  0
  2 17  1  0
 17 18  2  0
 17 19  1  0
  8  3  2  0
 16 11  1  0
M  END
>  <compound_id>  (4) 
LIB005_ketoprofen

>  <display_name>  (4) 
Ketoprofen

>  <pubchem_cid>  (4) 
3825

>  <supplier>  (4) 
AsterChem

$$$$
LIB007_caffeine
     RDKit          2D

 14 15  0  0  0  0  0  0  0  0999 V2000
    3.3789   -1.3434    0.0000 C   0  0  0  0  0  0  0  0  0  0  0  0
    2.4408   -0.1729    0.0000 N   0  0  0  0  0  0  0  0  0  0  0  0
    2.8364    1.2740    0.0000 C   0  0  0  0  0  0  0  0  0  0  0  0
    1.5825    2.0973    0.0000 N   0  0  0  0  0  0  0  0  0  0  0  0
    0.4120    1.1592    0.0000 C   0  0  0  0  0  0  0  0  0  0  0  0
    0.9425   -0.2439    0.0000 C   0  0  0  0  0  0  0  0  0  0  0  0
   -0.0074   -1.4048    0.0000 C   0  0  0  0  0  0  0  0  0  0  0  0
    0.5231   -2.8079    0.0000 O   0  0  0  0  0  0  0  0  0  0  0  0
   -1.4877   -1.1627    0.0000 N   0  0  0  0  0  0  0  0  0  0  0  0
   -2.0182    0.2404    0.0000 C   0  0  0  0  0  0  0  0  0  0  0  0
   -3.4985    0.4825    0.0000 O   0  0  0  0  0  0  0  0  0  0  0  0
   -1.0683    1.4013    0.0000 N   0  0  0  0  0  0  0  0  0  0  0  0
   -1.5988    2.8044    0.0000 C   0  0  0  0  0  0  0  0  0  0  0  0
   -2.4375   -2.3236    0.0000 C   0  0  0  0  0  0  0  0  0  0  0  0
  1  2  1  0
  2  3  1  0
  3  4  2  0
  4  5  1  0
  5  6  2  0
  6  7  1  0
  7  8  2  0
  7  9  1  0
  9 10  1  0
 10 11  2  0
 10 12  1  0
 12 13  1  0
  9 14  1  0
  6  2  1  0
 12  5  1  0
M  END
>  <compound_id>  (5) 
LIB007_caffeine

>  <display_name>  (5) 
Caffeine

>  <pubchem_cid>  (5) 
2519

>  <supplier>  (5) 
NorthPier

$$$$
LIB010_aspirin
     RDKit          2D

 13 13  0  0  0  0  0  0  0  0999 V2000
   -3.8123   -1.2868    0.0000 C   0  0  0  0  0  0  0  0  0  0  0  0
   -2.6987   -0.2818    0.0000 C   0  0  0  0  0  0  0  0  0  0  0  0
   -3.0122    1.1850    0.0000 O   0  0  0  0  0  0  0  0  0  0  0  0
   -1.2716   -0.7438    0.0000 O   0  0  0  0  0  0  0  0  0  0  0  0
   -0.1580    0.2612    0.0000 C   0  0  0  0  0  0  0  0  0  0  0  0
   -0.4715    1.7281    0.0000 C   0  0  0  0  0  0  0  0  0  0  0  0
    0.6420    2.7330    0.0000 C   0  0  0  0  0  0  0  0  0  0  0  0
    2.0691    2.2711    0.0000 C   0  0  0  0  0  0  0  0  0  0  0  0
    2.3827    0.8043    0.0000 C   0  0  0  0  0  0  0  0  0  0  0  0
    1.2691   -0.2007    0.0000 C   0  0  0  0  0  0  0  0  0  0  0  0
    1.5826   -1.6676    0.0000 C   0  0  0  0  0  0  0  0  0  0  0  0
    3.0097   -2.1295    0.0000 O   0  0  0  0  0  0  0  0  0  0  0  0
    0.4690   -2.6725    0.0000 O   0  0  0  0  0  0  0  0  0  0  0  0
  1  2  1  0
  2  3  2  0
  2  4  1  0
  4  5  1  0
  5  6  2  0
  6  7  1  0
  7  8  2  0
  8  9  1  0
  9 10  2  0
 10 11  1  0
 11 12  2  0
 11 13  1  0
 10  5  1  0
M  END
>  <compound_id>  (6) 
LIB010_aspirin

>  <display_name>  (6) 
Aspirin

>  <pubchem_cid>  (6) 
2244

>  <supplier>  (6) 
BlueDune

$$$$
LIB012_nitrobenzene
     RDKit          2D

  9  9  0  0  0  0  0  0  0  0999 V2000
    2.6667   -0.0000    0.0000 C   0  0  0  0  0  0  0  0  0  0  0  0
    1.9167   -1.2990    0.0000 C   0  0  0  0  0  0  0  0  0  0  0  0
    0.4167   -1.2990    0.0000 C   0  0  0  0  0  0  0  0  0  0  0  0
   -0.3333    0.0000    0.0000 C   0  0  0  0  0  0  0  0  0  0  0  0
    0.4167    1.2990    0.0000 C   0  0  0  0  0  0  0  0  0  0  0  0
    1.9167    1.2990    0.0000 C   0  0  0  0  0  0  0  0  0  0  0  0
   -1.8333    0.0000    0.0000 N   0  0  0  0  0  0  0  0  0  0  0  0
   -2.5833   -1.2990    0.0000 O   0  0  0  0  0  0  0  0  0  0  0  0
   -2.5833    1.2990    0.0000 O   0  0  0  0  0  0  0  0  0  0  0  0
  1  2  2  0
  2  3  1  0
  3  4  2  0
  4  5  1  0
  5  6  2  0
  4  7  1  0
  7  8  2  0
  7  9  1  0
  6  1  1  0
M  CHG  2   7   1   9  -1
M  END
>  <compound_id>  (7) 
LIB012_nitrobenzene

>  <display_name>  (7) 
Nitrobenzene

>  <pubchem_cid>  (7) 
7416

>  <supplier>  (7) 
NorthPier

$$$$
LIB015_dnp
     RDKit          2D

 13 13  0  0  0  0  0  0  0  0999 V2000
    1.3045   -1.6202    0.0000 C   0  0  0  0  0  0  0  0  0  0  0  0
   -0.0789   -2.2000    0.0000 C   0  0  0  0  0  0  0  0  0  0  0  0
   -1.2727   -1.2918    0.0000 C   0  0  0  0  0  0  0  0  0  0  0  0
   -1.0831    0.1962    0.0000 C   0  0  0  0  0  0  0  0  0  0  0  0
    0.3004    0.7759    0.0000 C   0  0  0  0  0  0  0  0  0  0  0  0
    1.4942   -0.1323    0.0000 C   0  0  0  0  0  0  0  0  0  0  0  0
    2.8776    0.4475    0.0000 N   0  0  0  0  0  0  0  0  0  0  0  0
    3.0672    1.9354    0.0000 O   0  0  0  0  0  0  0  0  0  0  0  0
    4.0714   -0.4608    0.0000 O   0  0  0  0  0  0  0  0  0  0  0  0
   -2.2769    1.1044    0.0000 N   0  0  0  0  0  0  0  0  0  0  0  0
   -3.6603    0.5247    0.0000 O   0  0  0  0  0  0  0  0  0  0  0  0
   -2.0872    2.5924    0.0000 O   0  0  0  0  0  0  0  0  0  0  0  0
   -2.6562   -1.8715    0.0000 O   0  0  0  0  0  0  0  0  0  0  0  0
  1  2  2  0
  2  3  1  0
  3  4  2  0
  4  5  1  0
  5  6  2  0
  6  7  1  0
  7  8  2  0
  7  9  1  0
  4 10  1  0
 10 11  2  0
 10 12  1  0
  3 13  1  0
  6  1  1  0
M  CHG  4   7   1   9  -1  10   1  12  -1
M  END
>  <compound_id>  (8) 
LIB015_dnp

>  <display_name>  (8) 
2,4-dinitrophenol

>  <pubchem_cid>  (8) 
1493

>  <supplier>  (8) 
AsterChem

$$$$
